Version 4
SHEET 1 880 680
WIRE 128 144 16 144
WIRE 272 144 192 144
WIRE 16 176 16 144
WIRE 272 192 272 144
WIRE 16 320 16 256
WIRE 272 320 272 272
WIRE 272 320 16 320
FLAG 16 320 0
SYMBOL res 256 176 R0
SYMATTR InstName R1
SYMATTR Value 9744
SYMBOL diode 128 160 R270
WINDOW 0 32 32 VTop 2
WINDOW 3 0 32 VBottom 2
SYMATTR InstName D1
SYMATTR Value D1N4001
SYMBOL voltage 16 160 R0
WINDOW 123 0 0 Left 0
WINDOW 39 0 0 Left 0
SYMATTR InstName V1
SYMATTR Value SINE(0 0.25 1k)
TEXT -16 352 Left 2 !.tran 4m
