Version 4
SHEET 1 880 680
WIRE 128 80 16 80
WIRE 288 80 208 80
WIRE 16 128 16 80
WIRE 288 128 288 80
WIRE 16 272 16 208
WIRE 96 272 16 272
WIRE 288 272 288 192
WIRE 288 272 96 272
WIRE 96 304 96 272
FLAG 96 304 0
SYMBOL res 224 64 R90
WINDOW 0 0 56 VBottom 2
WINDOW 3 32 56 VTop 2
SYMATTR InstName R1
SYMATTR Value 1k
SYMBOL diode 272 128 R0
SYMATTR InstName D1
SYMATTR Value D1N4001
SYMBOL voltage 16 112 R0
WINDOW 123 0 0 Left 0
WINDOW 39 0 0 Left 0
SYMATTR InstName V1
SYMATTR Value SINE(0 10 10)
TEXT -18 328 Left 2 !.tran 1s
